Version 4
SHEET 1 1748 820
WIRE -672 16 -672 -16
WIRE -672 112 -672 96
WIRE 1488 224 1488 192
WIRE 368 240 304 240
WIRE 128 288 64 288
WIRE 320 288 304 288
WIRE 1392 288 1088 288
WIRE 1088 304 1088 288
WIRE 1744 320 1584 320
WIRE 1392 352 1200 352
WIRE 1200 368 1200 352
WIRE 640 400 640 368
WIRE 320 416 320 288
WIRE 320 416 -784 416
WIRE 1088 416 1088 384
WIRE 1392 416 1328 416
WIRE -784 480 -784 416
WIRE 1200 480 1200 448
WIRE 640 496 640 480
WIRE 1328 496 1328 416
WIRE 1328 496 640 496
WIRE 640 512 640 496
WIRE 64 560 64 288
WIRE 144 560 144 544
WIRE 144 560 64 560
WIRE 368 560 368 240
WIRE 368 560 304 560
WIRE 448 560 368 560
WIRE 576 560 528 560
WIRE 1488 576 1488 528
WIRE -784 592 -784 560
WIRE -80 608 -208 608
WIRE 144 608 -80 608
WIRE -208 640 -208 608
WIRE 640 656 640 608
WIRE -208 752 -208 720
WIRE 640 768 640 736
FLAG -208 752 0
FLAG 1200 480 0
FLAG 1488 576 0
FLAG -672 112 0
FLAG -672 -16 vcc
FLAG 1488 192 vcc
FLAG 1088 416 0
FLAG -80 608 clk
FLAG 640 768 0
FLAG 640 368 vcc
FLAG -784 592 0
SYMBOL Switches\\ADG884 1488 368 R0
SYMATTR InstName U2
SYMBOL voltage -208 624 R0
WINDOW 3 -27 164 Left 2
WINDOW 123 0 0 Left 0
WINDOW 39 0 0 Left 0
SYMATTR Value PULSE(0 5 250.001u 0 0 50u 500u 10)
SYMATTR InstName V1
SYMBOL voltage 1200 352 R0
WINDOW 3 -302 99 Left 2
WINDOW 123 0 0 Left 0
WINDOW 39 0 0 Left 0
SYMATTR Value SINE(1 1 10k 0 0 0 1000)
SYMATTR InstName V2
SYMBOL voltage -672 0 R0
WINDOW 123 0 0 Left 0
WINDOW 39 0 0 Left 0
SYMATTR InstName V3
SYMATTR Value 5
SYMBOL voltage 1088 288 R0
WINDOW 3 -317 102 Left 2
WINDOW 123 0 0 Left 0
WINDOW 39 0 0 Left 0
SYMATTR Value SINE(1 1 2k 0 0 0 1000)
SYMATTR InstName V4
SYMBOL Digital\\dflop 224 512 R0
SYMATTR InstName A1
SYMBOL Digital\\dflop 224 192 M0
SYMATTR InstName A2
SYMBOL voltage -784 464 R0
WINDOW 3 -27 164 Left 2
WINDOW 123 0 0 Left 0
WINDOW 39 0 0 Left 0
SYMATTR Value PULSE(0 5 250u 0 0 50u 500u 10)
SYMATTR InstName V5
SYMBOL npn 576 512 R0
SYMATTR InstName Q1
SYMBOL res 544 544 R90
WINDOW 0 0 56 VBottom 2
WINDOW 3 32 56 VTop 2
SYMATTR InstName R1
SYMATTR Value 1k
SYMBOL res 656 496 R180
WINDOW 0 36 76 Left 2
WINDOW 3 36 40 Left 2
SYMATTR InstName R2
SYMATTR Value 20k
SYMBOL res 656 752 R180
WINDOW 0 36 76 Left 2
WINDOW 3 36 40 Left 2
SYMATTR InstName R3
SYMATTR Value 1k
TEXT -464 568 Left 2 !.tran 5m
