Version 4
SHEET 1 2440 1256
WIRE -784 64 -784 48
WIRE -624 80 -624 -80
WIRE -784 160 -784 144
WIRE -784 176 -784 160
WIRE -624 176 -624 160
WIRE -784 288 -784 256
WIRE -1152 384 -1392 384
WIRE -1088 384 -1152 384
WIRE -1040 384 -1088 384
WIRE -976 384 -1024 384
WIRE -800 384 -896 384
WIRE -736 384 -800 384
WIRE -608 384 -656 384
WIRE -1392 416 -1392 384
WIRE -800 496 -800 384
WIRE -736 496 -800 496
WIRE -1392 512 -1392 496
WIRE -608 512 -608 384
WIRE -608 512 -672 512
WIRE -560 512 -608 512
WIRE -1152 528 -1232 528
WIRE -1088 528 -1152 528
WIRE -1040 528 -1088 528
WIRE -976 528 -1024 528
WIRE -816 528 -896 528
WIRE -736 528 -816 528
WIRE -1232 560 -1232 528
WIRE -816 560 -816 528
WIRE -80 560 -80 528
WIRE -176 624 -240 624
WIRE -1232 656 -1232 640
WIRE -816 656 -816 640
WIRE 144 656 16 656
WIRE -176 688 -240 688
WIRE -176 752 -208 752
WIRE -784 768 -944 768
WIRE -944 832 -944 768
WIRE -896 832 -944 832
WIRE -784 848 -784 768
WIRE -784 848 -832 848
WIRE -688 848 -784 848
WIRE -1136 864 -1232 864
WIRE -992 864 -1072 864
WIRE -896 864 -992 864
WIRE -992 880 -992 864
WIRE -80 896 -80 864
WIRE -1232 944 -1232 864
WIRE -992 976 -992 960
WIRE -1232 1040 -1232 1024
FLAG -784 288 0
FLAG -784 48 Vcc
FLAG -1152 528 BT_sig+
FLAG -624 -80 cmd
FLAG -80 528 Vcc
FLAG -208 752 cmd
FLAG -240 624 jack_sig
FLAG -240 688 BT_sig
FLAG -704 480 Vcc
FLAG -704 544 0
FLAG -1152 384 BT_sig-
FLAG -784 160 gnd2
FLAG -816 656 gnd2
FLAG -560 512 BT_sig
FLAG -1392 512 gnd2
FLAG -624 176 gnd2
FLAG -1232 656 gnd2
FLAG -1232 1040 gnd2
FLAG -992 976 gnd2
FLAG -864 880 gnd2
FLAG -864 816 Vcc
FLAG -688 848 jack_sig
FLAG -80 896 0
SYMBOL voltage -624 64 R0
WINDOW 3 -47 -128 VRight 2
WINDOW 123 0 0 Left 0
WINDOW 39 0 0 Left 0
SYMATTR Value PULSE(0 5 0 0 0 500u 1m 10)
SYMATTR InstName V1
SYMBOL voltage -784 48 R0
WINDOW 123 0 0 Left 0
WINDOW 39 0 0 Left 0
SYMATTR InstName V2
SYMATTR Value 6
SYMBOL voltage -1232 544 R0
WINDOW 3 -55 -140 VRight 2
WINDOW 123 0 0 Left 0
WINDOW 39 0 0 Left 0
SYMATTR Value SINE(2.5 2.5 2k 0 0 0 1000)
SYMATTR InstName V3
SYMBOL Switches\\ADG884 -80 704 R0
SYMATTR InstName U2
SYMBOL voltage -1232 928 R0
WINDOW 3 -55 -140 VRight 2
WINDOW 123 0 0 Left 0
WINDOW 39 0 0 Left 0
SYMATTR Value SINE(2.5 2.5 10k 0 0 0 1000)
SYMATTR InstName V4
SYMBOL voltage -1392 400 R0
WINDOW 3 -55 -140 VRight 2
WINDOW 123 0 0 Left 0
WINDOW 39 0 0 Left 0
SYMATTR Value SINE(2.5 2.5 2k 0 0 180 1000)
SYMATTR InstName V5
SYMBOL OpAmps\\UniversalOpAmp -704 512 R0
SYMATTR InstName U1
SYMBOL res -880 512 R90
WINDOW 0 0 56 VBottom 2
WINDOW 3 32 56 VTop 2
SYMATTR InstName R1
SYMATTR Value 20k
SYMBOL res -800 656 R180
WINDOW 0 36 76 Left 2
WINDOW 3 36 40 Left 2
SYMATTR InstName R2
SYMATTR Value 10k
SYMBOL res -992 400 R270
WINDOW 0 32 56 VTop 2
WINDOW 3 0 56 VBottom 2
SYMATTR InstName R3
SYMATTR Value 20k
SYMBOL res -752 400 R270
WINDOW 0 32 56 VTop 2
WINDOW 3 0 56 VBottom 2
SYMATTR InstName R4
SYMATTR Value 10k
SYMBOL voltage -784 160 R0
WINDOW 123 0 0 Left 0
WINDOW 39 0 0 Left 0
SYMATTR InstName V6
SYMATTR Value 6
SYMBOL cap -1024 368 R90
WINDOW 0 0 32 VBottom 2
WINDOW 3 32 32 VTop 2
SYMATTR InstName C1
SYMATTR Value 1µ
SYMBOL cap -1024 512 R90
WINDOW 0 0 32 VBottom 2
WINDOW 3 32 32 VTop 2
SYMATTR InstName C2
SYMATTR Value 1µ
SYMBOL cap -1072 848 R90
WINDOW 0 0 32 VBottom 2
WINDOW 3 32 32 VTop 2
SYMATTR InstName C3
SYMATTR Value 1µ
SYMBOL res -1008 864 R0
SYMATTR InstName R5
SYMATTR Value 20k
SYMBOL OpAmps\\UniversalOpAmp -864 848 R0
SYMATTR InstName U3
TEXT -528 320 Left 2 !.tran 5m
