Version 4
SHEET 1 6152 3796
WIRE -160 -768 -160 -800
WIRE -272 -560 -304 -560
WIRE -128 -560 -272 -560
WIRE 48 -560 -128 -560
WIRE 288 -560 48 -560
WIRE -128 -544 -128 -560
WIRE -272 -496 -272 -560
WIRE 48 -496 48 -560
WIRE -128 -448 -128 -464
WIRE -16 -448 -128 -448
WIRE 96 -400 48 -400
WIRE 240 -400 176 -400
WIRE -272 -368 -272 -432
WIRE -128 -368 -128 -384
WIRE -128 -368 -272 -368
WIRE 240 -368 240 -400
WIRE 288 -368 240 -368
WIRE -128 -352 -128 -368
WIRE -272 -336 -272 -368
WIRE 96 -336 48 -336
WIRE 240 -336 240 -368
WIRE 240 -336 176 -336
WIRE -16 -288 -128 -288
WIRE -128 -272 -128 -288
WIRE -272 -176 -272 -272
WIRE -272 -176 -304 -176
WIRE -128 -176 -128 -192
WIRE -128 -176 -272 -176
WIRE 48 -176 48 -240
WIRE 48 -176 -128 -176
WIRE 256 -176 48 -176
WIRE 16 -48 -272 -48
WIRE 432 -48 16 -48
WIRE 512 -48 432 -48
WIRE 512 -16 512 -48
WIRE 96 64 -64 64
WIRE 432 64 432 -48
WIRE 432 64 320 64
WIRE 96 128 64 128
WIRE 512 128 512 64
WIRE 512 128 320 128
WIRE -272 144 -272 -48
WIRE 512 160 512 128
WIRE 352 192 320 192
WIRE 2496 208 2368 208
WIRE 2880 208 2496 208
WIRE 3008 208 2880 208
WIRE 3248 208 3008 208
WIRE 3456 208 3248 208
WIRE 4048 208 3456 208
WIRE 16 256 16 -48
WIRE 96 256 16 256
WIRE 384 256 320 256
WIRE 512 272 512 240
WIRE 608 272 512 272
WIRE 3008 272 3008 208
WIRE 3248 272 3248 208
WIRE 3456 272 3456 208
WIRE 4048 288 4048 208
WIRE 384 304 384 256
WIRE 512 304 512 272
WIRE 2880 320 2880 288
WIRE 2944 320 2880 320
WIRE 2368 336 2368 208
WIRE 2496 336 2496 208
WIRE 2624 336 2496 336
WIRE 3200 352 3152 352
WIRE 3408 352 3376 352
WIRE 2624 368 2624 336
WIRE 3456 368 3456 352
WIRE 4208 368 4096 368
WIRE -272 400 -272 224
WIRE -64 400 -64 64
WIRE -64 400 -272 400
WIRE 384 400 384 368
WIRE 384 400 -64 400
WIRE 512 400 512 368
WIRE 512 400 384 400
WIRE 2496 448 2496 336
WIRE 2368 464 2368 416
WIRE 2464 464 2368 464
WIRE 2624 480 2624 448
WIRE 2624 480 2528 480
WIRE 2880 480 2880 320
WIRE 2880 480 2624 480
WIRE 3008 480 3008 368
WIRE 3104 480 3008 480
WIRE 3152 480 3152 352
WIRE 3152 480 3104 480
WIRE 3248 480 3248 368
WIRE 3376 480 3376 352
WIRE 3376 480 3248 480
WIRE 3456 480 3456 368
WIRE 3584 480 3456 480
WIRE 3760 480 3664 480
WIRE 3888 480 3840 480
WIRE 4048 480 4048 384
WIRE 4048 480 3968 480
WIRE 2464 496 2416 496
WIRE 2416 560 2416 496
WIRE 2416 560 2272 560
WIRE 2368 576 2368 464
WIRE 4048 576 4048 480
WIRE 3456 592 3456 480
WIRE 3008 608 3008 480
WIRE 3248 608 3248 480
WIRE 2880 656 2880 480
WIRE 2944 656 2880 656
WIRE 4208 656 4208 368
WIRE 4208 656 4096 656
WIRE 3376 672 3376 480
WIRE 3408 672 3376 672
WIRE 3152 688 3152 480
WIRE 3200 688 3152 688
WIRE 3456 688 3456 672
WIRE 1504 784 1184 784
WIRE 2368 800 2368 656
WIRE 2496 800 2496 512
WIRE 2496 800 2368 800
WIRE 3008 800 3008 704
WIRE 3008 800 2496 800
WIRE 3248 800 3248 704
WIRE 3248 800 3008 800
WIRE 3456 800 3456 688
WIRE 3456 800 3248 800
WIRE 4048 800 4048 672
WIRE 4048 800 3456 800
WIRE 800 816 480 816
WIRE 208 848 -48 848
WIRE 1312 864 1312 848
WIRE 3104 880 3104 480
WIRE 4208 880 4208 656
WIRE 4208 880 3104 880
WIRE 608 896 608 880
WIRE 1184 912 1184 784
WIRE 1280 912 1184 912
WIRE 480 944 480 816
WIRE 576 944 480 944
WIRE 1504 944 1504 784
WIRE 1504 944 1424 944
WIRE 1600 944 1504 944
WIRE -48 976 -48 848
WIRE 48 976 -48 976
WIRE 800 976 800 816
WIRE 800 976 720 976
WIRE 928 976 800 976
WIRE 1024 976 1008 976
WIRE 1040 976 1024 976
WIRE 1184 976 1120 976
WIRE 1280 976 1184 976
WIRE 1184 992 1184 976
WIRE 208 1008 208 848
WIRE 208 1008 192 1008
WIRE 224 1008 208 1008
WIRE 320 1008 304 1008
WIRE 336 1008 320 1008
WIRE 480 1008 416 1008
WIRE 576 1008 480 1008
WIRE 480 1024 480 1008
WIRE -48 1040 -112 1040
WIRE 48 1040 -48 1040
WIRE 1312 1040 1312 1024
WIRE -48 1072 -48 1040
WIRE 608 1072 608 1056
WIRE 1184 1072 1184 1056
WIRE 480 1104 480 1088
WIRE -48 1168 -48 1136
WIRE 1024 1168 1024 976
WIRE 1216 1168 1024 1168
WIRE 1504 1168 1504 944
WIRE 1504 1168 1280 1168
WIRE 320 1200 320 1008
WIRE 512 1200 320 1200
WIRE 800 1200 800 976
WIRE 800 1200 576 1200
WIRE 3760 1280 3632 1280
WIRE 4144 1280 3760 1280
WIRE 4272 1280 4144 1280
WIRE 4512 1280 4272 1280
WIRE 4720 1280 4512 1280
WIRE 5312 1280 4720 1280
WIRE 4272 1344 4272 1280
WIRE 4512 1344 4512 1280
WIRE 4720 1344 4720 1280
WIRE 5312 1360 5312 1280
WIRE 4144 1392 4144 1360
WIRE 4208 1392 4144 1392
WIRE 3632 1408 3632 1280
WIRE 3760 1408 3760 1280
WIRE 3888 1408 3760 1408
WIRE 4464 1424 4416 1424
WIRE 4672 1424 4640 1424
WIRE 3888 1440 3888 1408
WIRE 4720 1440 4720 1424
WIRE 5472 1440 5360 1440
WIRE -48 1488 -80 1488
WIRE 112 1488 16 1488
WIRE 480 1488 112 1488
WIRE 784 1520 752 1520
WIRE 944 1520 848 1520
WIRE 1312 1520 944 1520
WIRE 3760 1520 3760 1408
WIRE 112 1536 112 1488
WIRE 3632 1536 3632 1488
WIRE 3728 1536 3632 1536
WIRE 1616 1552 1584 1552
WIRE 1776 1552 1680 1552
WIRE 2144 1552 1776 1552
WIRE 3888 1552 3888 1520
WIRE 3888 1552 3792 1552
WIRE 4144 1552 4144 1392
WIRE 4144 1552 3888 1552
WIRE 4272 1552 4272 1440
WIRE 4368 1552 4272 1552
WIRE 4416 1552 4416 1424
WIRE 4416 1552 4368 1552
WIRE 4512 1552 4512 1440
WIRE 4640 1552 4640 1424
WIRE 4640 1552 4512 1552
WIRE 4720 1552 4720 1440
WIRE 4848 1552 4720 1552
WIRE 5024 1552 4928 1552
WIRE 5152 1552 5104 1552
WIRE 5312 1552 5312 1456
WIRE 5312 1552 5232 1552
WIRE 944 1568 944 1520
WIRE 3728 1568 3680 1568
WIRE 2448 1584 2416 1584
WIRE 2608 1584 2512 1584
WIRE 2976 1584 2608 1584
WIRE 1776 1600 1776 1552
WIRE 2608 1632 2608 1584
WIRE 3680 1632 3680 1568
WIRE 3680 1632 3536 1632
WIRE 3632 1648 3632 1536
WIRE 5312 1648 5312 1552
WIRE -80 1664 -80 1488
WIRE -80 1664 -160 1664
WIRE -48 1664 -80 1664
WIRE 112 1664 112 1616
WIRE 112 1664 16 1664
WIRE 224 1664 112 1664
WIRE 4720 1664 4720 1552
WIRE 4272 1680 4272 1552
WIRE 4512 1680 4512 1552
WIRE 480 1696 480 1488
WIRE 480 1696 368 1696
WIRE 592 1696 480 1696
WIRE 752 1696 752 1520
WIRE 752 1696 672 1696
WIRE 784 1696 752 1696
WIRE 944 1696 944 1648
WIRE 944 1696 848 1696
WIRE 1056 1696 944 1696
WIRE -80 1728 -80 1664
WIRE 224 1728 176 1728
WIRE 1312 1728 1312 1520
WIRE 1312 1728 1200 1728
WIRE 1424 1728 1312 1728
WIRE 1584 1728 1584 1552
WIRE 1584 1728 1504 1728
WIRE 1616 1728 1584 1728
WIRE 1776 1728 1776 1680
WIRE 1776 1728 1680 1728
WIRE 1888 1728 1776 1728
WIRE 4144 1728 4144 1552
WIRE 4208 1728 4144 1728
WIRE 5472 1728 5472 1440
WIRE 5472 1728 5360 1728
WIRE 4640 1744 4640 1552
WIRE 4672 1744 4640 1744
WIRE 752 1760 752 1696
WIRE 1056 1760 1008 1760
WIRE 2144 1760 2144 1552
WIRE 2144 1760 2032 1760
WIRE 2256 1760 2144 1760
WIRE 2416 1760 2416 1584
WIRE 2416 1760 2336 1760
WIRE 2448 1760 2416 1760
WIRE 2608 1760 2608 1712
WIRE 2608 1760 2512 1760
WIRE 2720 1760 2608 1760
WIRE 4416 1760 4416 1552
WIRE 4464 1760 4416 1760
WIRE 4720 1760 4720 1744
WIRE 1888 1792 1840 1792
WIRE 2976 1792 2976 1584
WIRE 2976 1792 2864 1792
WIRE 3088 1792 2976 1792
WIRE 2144 1824 2144 1760
WIRE 2720 1824 2672 1824
WIRE 2976 1824 2976 1792
WIRE -80 1872 -80 1808
WIRE 3632 1872 3632 1728
WIRE 3760 1872 3760 1584
WIRE 3760 1872 3632 1872
WIRE 4272 1872 4272 1776
WIRE 4272 1872 3760 1872
WIRE 4512 1872 4512 1776
WIRE 4512 1872 4272 1872
WIRE 4720 1872 4720 1760
WIRE 4720 1872 4512 1872
WIRE 5312 1872 5312 1744
WIRE 5312 1872 4720 1872
WIRE 176 1888 176 1728
WIRE 752 1904 752 1840
WIRE 1008 1920 1008 1760
WIRE 1840 1936 1840 1792
WIRE 2144 1936 2144 1904
WIRE 2144 1936 1840 1936
WIRE 4368 1952 4368 1552
WIRE 5472 1952 5472 1728
WIRE 5472 1952 4368 1952
WIRE 2672 1968 2672 1824
WIRE 2976 1968 2976 1904
WIRE 2976 1968 2672 1968
WIRE 2144 1984 2144 1936
WIRE 2976 1984 2976 1968
WIRE 2144 2096 2144 2064
WIRE 2976 2112 2976 2064
WIRE 3760 2240 3632 2240
WIRE 4144 2240 3760 2240
WIRE 4272 2240 4144 2240
WIRE 4512 2240 4272 2240
WIRE 4720 2240 4512 2240
WIRE 5312 2240 4720 2240
WIRE 4272 2304 4272 2240
WIRE 4512 2304 4512 2240
WIRE 4720 2304 4720 2240
WIRE 5312 2320 5312 2240
WIRE 2976 2336 2640 2336
WIRE 4144 2352 4144 2320
WIRE 4208 2352 4144 2352
WIRE 2144 2368 1808 2368
WIRE 3632 2368 3632 2240
WIRE 3760 2368 3760 2240
WIRE 3888 2368 3760 2368
WIRE 4464 2384 4416 2384
WIRE 4672 2384 4640 2384
WIRE 1296 2400 960 2400
WIRE 3888 2400 3888 2368
WIRE 4720 2400 4720 2384
WIRE 5472 2400 5360 2400
WIRE 448 2432 112 2432
WIRE 2640 2480 2640 2336
WIRE 2736 2480 2640 2480
WIRE 3760 2480 3760 2368
WIRE 3632 2496 3632 2448
WIRE 3728 2496 3632 2496
WIRE 1808 2512 1808 2368
WIRE 1904 2512 1808 2512
WIRE 2880 2512 2864 2512
WIRE 2928 2512 2880 2512
WIRE 2976 2512 2976 2336
WIRE 2976 2512 2928 2512
WIRE 3168 2512 2976 2512
WIRE 3888 2512 3888 2480
WIRE 3888 2512 3792 2512
WIRE 4144 2512 4144 2352
WIRE 4144 2512 3888 2512
WIRE 4272 2512 4272 2400
WIRE 4368 2512 4272 2512
WIRE 4416 2512 4416 2384
WIRE 4416 2512 4368 2512
WIRE 4512 2512 4512 2400
WIRE 4640 2512 4640 2384
WIRE 4640 2512 4512 2512
WIRE 4720 2512 4720 2400
WIRE 4848 2512 4720 2512
WIRE 5024 2512 4928 2512
WIRE 5152 2512 5104 2512
WIRE 5312 2512 5312 2416
WIRE 5312 2512 5232 2512
WIRE 3728 2528 3680 2528
WIRE 960 2544 960 2400
WIRE 1056 2544 960 2544
WIRE 2048 2544 2032 2544
WIRE 2096 2544 2048 2544
WIRE 2144 2544 2144 2368
WIRE 2144 2544 2096 2544
WIRE 2288 2544 2144 2544
WIRE 2416 2544 2352 2544
WIRE 2464 2544 2416 2544
WIRE 2640 2544 2528 2544
WIRE 2736 2544 2640 2544
WIRE 112 2576 112 2432
WIRE 208 2576 112 2576
WIRE 1200 2576 1184 2576
WIRE 1248 2576 1200 2576
WIRE 1296 2576 1296 2400
WIRE 1296 2576 1248 2576
WIRE 1456 2576 1296 2576
WIRE 1584 2576 1520 2576
WIRE 1632 2576 1584 2576
WIRE 1808 2576 1696 2576
WIRE 1904 2576 1808 2576
WIRE 2640 2576 2640 2544
WIRE 2640 2592 2640 2576
WIRE 3680 2592 3680 2528
WIRE 3680 2592 3536 2592
WIRE 352 2608 336 2608
WIRE 400 2608 352 2608
WIRE 448 2608 448 2432
WIRE 448 2608 400 2608
WIRE 608 2608 448 2608
WIRE 736 2608 688 2608
WIRE 784 2608 736 2608
WIRE 960 2608 864 2608
WIRE 1056 2608 960 2608
WIRE 1808 2608 1808 2576
WIRE 3632 2608 3632 2496
WIRE 5312 2608 5312 2512
WIRE 1808 2624 1808 2608
WIRE 4720 2624 4720 2512
WIRE -112 2640 -160 2640
WIRE -64 2640 -112 2640
WIRE 112 2640 16 2640
WIRE 208 2640 112 2640
WIRE 4272 2640 4272 2512
WIRE 4512 2640 4512 2512
WIRE 960 2656 960 2608
WIRE 112 2688 112 2640
WIRE 2640 2688 2640 2656
WIRE 4144 2688 4144 2512
WIRE 4208 2688 4144 2688
WIRE 5472 2688 5472 2400
WIRE 5472 2688 5360 2688
WIRE 4640 2704 4640 2512
WIRE 4672 2704 4640 2704
WIRE 1808 2720 1808 2688
WIRE 4416 2720 4416 2512
WIRE 4464 2720 4416 2720
WIRE 4720 2720 4720 2704
WIRE 960 2752 960 2720
WIRE 2416 2768 2416 2544
WIRE 2688 2768 2416 2768
WIRE 2928 2768 2928 2512
WIRE 2928 2768 2768 2768
WIRE 112 2784 112 2752
WIRE 1584 2800 1584 2576
WIRE 1792 2800 1584 2800
WIRE 2096 2800 2096 2544
WIRE 2096 2800 1872 2800
WIRE 736 2832 736 2608
WIRE 864 2832 736 2832
WIRE 1248 2832 1248 2576
WIRE 1248 2832 928 2832
WIRE 3632 2832 3632 2688
WIRE 3760 2832 3760 2544
WIRE 3760 2832 3632 2832
WIRE 4272 2832 4272 2736
WIRE 4272 2832 3760 2832
WIRE 4512 2832 4512 2736
WIRE 4512 2832 4272 2832
WIRE 4720 2832 4720 2720
WIRE 4720 2832 4512 2832
WIRE 5312 2832 5312 2704
WIRE 5312 2832 4720 2832
WIRE -112 2864 -112 2640
WIRE 16 2864 -112 2864
WIRE 400 2864 400 2608
WIRE 400 2864 80 2864
WIRE 4368 2912 4368 2512
WIRE 5472 2912 5472 2688
WIRE 5472 2912 4368 2912
WIRE 2688 3120 2560 3120
WIRE 3072 3120 2688 3120
WIRE 3200 3120 3072 3120
WIRE 3440 3120 3200 3120
WIRE 3648 3120 3440 3120
WIRE 4240 3120 3648 3120
WIRE 1136 3152 864 3152
WIRE 1776 3152 1488 3152
WIRE 3200 3184 3200 3120
WIRE 3440 3184 3440 3120
WIRE 3648 3184 3648 3120
WIRE 432 3200 112 3200
WIRE 4240 3200 4240 3120
WIRE 3072 3232 3072 3200
WIRE 3136 3232 3072 3232
WIRE 2560 3248 2560 3120
WIRE 2688 3248 2688 3120
WIRE 2816 3248 2688 3248
WIRE 3392 3264 3344 3264
WIRE 3600 3264 3568 3264
WIRE 1488 3280 1488 3152
WIRE 1552 3280 1488 3280
WIRE 2816 3280 2816 3248
WIRE 3648 3280 3648 3264
WIRE 4400 3280 4288 3280
WIRE 864 3312 864 3152
WIRE 960 3312 864 3312
WIRE 1776 3312 1776 3152
WIRE 1776 3312 1696 3312
WIRE 1888 3312 1776 3312
WIRE 112 3344 112 3200
WIRE 240 3344 112 3344
WIRE 1136 3344 1136 3152
WIRE 1136 3344 1104 3344
WIRE 1168 3344 1136 3344
WIRE 1280 3344 1232 3344
WIRE 1312 3344 1280 3344
WIRE 1456 3344 1376 3344
WIRE 1552 3344 1456 3344
WIRE 2688 3360 2688 3248
WIRE 432 3376 432 3200
WIRE 432 3376 384 3376
WIRE 496 3376 432 3376
WIRE 624 3376 560 3376
WIRE 688 3376 624 3376
WIRE 832 3376 752 3376
WIRE 960 3376 832 3376
WIRE 1456 3376 1456 3344
WIRE 2560 3376 2560 3328
WIRE 2656 3376 2560 3376
WIRE 2816 3392 2816 3360
WIRE 2816 3392 2720 3392
WIRE 3072 3392 3072 3232
WIRE 3072 3392 2816 3392
WIRE 3200 3392 3200 3280
WIRE 3296 3392 3200 3392
WIRE 3344 3392 3344 3264
WIRE 3344 3392 3296 3392
WIRE 3440 3392 3440 3280
WIRE 3568 3392 3568 3264
WIRE 3568 3392 3440 3392
WIRE 3648 3392 3648 3280
WIRE 3776 3392 3648 3392
WIRE 3952 3392 3856 3392
WIRE 4080 3392 4032 3392
WIRE 4240 3392 4240 3296
WIRE 4240 3392 4160 3392
WIRE -96 3408 -224 3408
WIRE 48 3408 -32 3408
WIRE 240 3408 48 3408
WIRE 832 3408 832 3376
WIRE 2656 3408 2608 3408
WIRE 48 3456 48 3408
WIRE 2608 3472 2608 3408
WIRE 2608 3472 2464 3472
WIRE 2560 3488 2560 3376
WIRE 4240 3488 4240 3392
WIRE 3648 3504 3648 3392
WIRE 3200 3520 3200 3392
WIRE 3440 3520 3440 3392
WIRE 1280 3536 1280 3344
WIRE 1600 3536 1280 3536
WIRE 1776 3536 1776 3312
WIRE 1776 3536 1680 3536
WIRE 3072 3568 3072 3392
WIRE 3136 3568 3072 3568
WIRE 4400 3568 4400 3280
WIRE 4400 3568 4288 3568
WIRE 48 3584 48 3536
WIRE 624 3584 624 3376
WIRE 928 3584 624 3584
WIRE 1136 3584 1136 3344
WIRE 1136 3584 1008 3584
WIRE 3568 3584 3568 3392
WIRE 3600 3584 3568 3584
WIRE 3344 3600 3344 3392
WIRE 3392 3600 3344 3600
WIRE 3648 3600 3648 3584
WIRE 2560 3712 2560 3568
WIRE 2688 3712 2688 3424
WIRE 2688 3712 2560 3712
WIRE 3200 3712 3200 3616
WIRE 3200 3712 2688 3712
WIRE 3440 3712 3440 3616
WIRE 3440 3712 3200 3712
WIRE 3648 3712 3648 3600
WIRE 3648 3712 3440 3712
WIRE 4240 3712 4240 3584
WIRE 4240 3712 3648 3712
WIRE 3296 3792 3296 3392
WIRE 4400 3792 4400 3568
WIRE 4400 3792 3296 3792
FLAG -272 -48 Vcc
FLAG 608 272 TR
FLAG 64 128 TR
FLAG 352 192 TR
FLAG 2272 560 TR
FLAG -304 -560 Vcc
FLAG -304 -176 0
FLAG 256 -176 -Vcc
FLAG 288 -368 VGND
FLAG 288 -560 Vcc
FLAG -272 400 0
FLAG 2368 208 Vcc
FLAG 2368 800 0
FLAG 608 880 Vcc
FLAG 608 1072 -Vcc
FLAG 80 928 Vcc
FLAG 80 1088 -Vcc
FLAG 1312 848 Vcc
FLAG 1312 1040 -Vcc
FLAG 256 1616 Vcc
FLAG 256 1776 -Vcc
FLAG 1088 1648 Vcc
FLAG 1088 1808 -Vcc
FLAG 1920 1680 Vcc
FLAG 1920 1840 -Vcc
FLAG 2752 1712 Vcc
FLAG 2752 1872 -Vcc
FLAG 240 2528 Vcc
FLAG 240 2688 -Vcc
FLAG 1088 2496 Vcc
FLAG 1088 2656 -Vcc
FLAG 1936 2464 Vcc
FLAG 1936 2624 -Vcc
FLAG 2768 2432 Vcc
FLAG 2768 2592 -Vcc
FLAG 272 3296 Vcc
FLAG 272 3456 -Vcc
FLAG 992 3264 Vcc
FLAG 992 3424 -Vcc
FLAG 1584 3232 Vcc
FLAG 1584 3392 -Vcc
FLAG 1600 944 SubWoofer
FLAG 3088 1792 Woofer
FLAG 3168 2512 Medium
FLAG 1888 3312 Twitter
FLAG -48 1168 VGND
FLAG 480 1104 VGND
FLAG 1184 1072 VGND
FLAG -80 1872 VGND
FLAG 176 1888 VGND
FLAG 752 1904 VGND
FLAG 1008 1920 VGND
FLAG 2144 2096 VGND
FLAG 2976 2112 VGND
FLAG 112 2784 VGND
FLAG 960 2752 VGND
FLAG 1808 2720 VGND
FLAG 2640 2688 VGND
FLAG 48 3584 VGND
FLAG 832 3488 VGND
FLAG 1456 3456 VGND
FLAG -192 1040 sig
FLAG -240 1664 sig
FLAG -240 2640 sig
FLAG -224 3408 sig
FLAG -1184 -624 VGND
FLAG -864 -624 VGND
FLAG -160 -688 VGND
FLAG -160 -800 sig
FLAG 2368 464 SubWoofer
FLAG 3536 1632 TR
FLAG 3632 1280 Vcc
FLAG 3632 1872 0
FLAG 3536 2592 TR
FLAG 3632 2240 Vcc
FLAG 3632 2832 0
FLAG 2464 3472 TR
FLAG 2560 3120 Vcc
FLAG 2560 3712 0
FLAG 2560 3376 Twitter
FLAG 3632 2496 Medium
FLAG 3632 1536 Woofer
SYMBOL Misc\\NE555 208 160 R0
SYMATTR InstName U1
SYMBOL res 496 -32 R0
SYMATTR InstName R1
SYMATTR Value 1k
SYMBOL res 496 144 R0
SYMATTR InstName R2
SYMATTR Value 6.8k
SYMBOL cap 496 304 R0
SYMATTR InstName C1
SYMATTR Value 470p
SYMBOL cap 368 304 R0
SYMATTR InstName C2
SYMATTR Value 10n
SYMBOL res 2352 320 R0
SYMATTR InstName R3
SYMATTR Value 10k
SYMBOL res 2352 560 R0
SYMATTR InstName R4
SYMATTR Value 10k
SYMBOL AutoGenerated\\LM393 2496 480 R0
SYMATTR InstName U2
SYMBOL res 2608 352 R0
SYMATTR InstName R5
SYMATTR Value 10k
SYMBOL diode -144 -448 R0
WINDOW 0 40 24 Left 2
WINDOW 3 38 49 Left 2
SYMATTR InstName D1
SYMATTR Value 1N4148
SYMBOL diode -144 -352 R0
WINDOW 0 48 23 Left 2
WINDOW 3 38 46 Left 2
SYMATTR InstName D2
SYMATTR Value 1N4148
SYMBOL res -144 -560 R0
SYMATTR InstName R6
SYMATTR Value 4.7k
SYMBOL res -144 -288 R0
SYMATTR InstName R7
SYMATTR Value 4.7k
SYMBOL cap -288 -496 R0
SYMATTR InstName C4
SYMATTR Value 220µ
SYMBOL cap -288 -336 R0
SYMATTR InstName C5
SYMATTR Value 220µ
SYMBOL npn -16 -496 R0
WINDOW 0 69 -40 Left 2
WINDOW 3 74 -8 Left 2
SYMATTR InstName Q1
SYMATTR Value 2N2222
SYMBOL pnp -16 -240 M180
WINDOW 0 81 -21 Left 2
WINDOW 3 80 3 Left 2
SYMATTR InstName Q2
SYMATTR Value 2N3906
SYMBOL res 192 -416 R90
WINDOW 0 -11 87 VBottom 2
WINDOW 3 -41 39 VTop 2
SYMATTR InstName R8
SYMATTR Value 10
SYMBOL res 192 -352 R90
WINDOW 0 64 77 VBottom 2
WINDOW 3 34 31 VTop 2
SYMATTR InstName R9
SYMATTR Value 10
SYMBOL voltage -272 128 R0
WINDOW 123 0 0 Left 0
WINDOW 39 0 0 Left 0
SYMATTR InstName V1
SYMATTR Value 12
SYMBOL pnp 2944 704 M180
SYMATTR InstName Q3
SYMATTR Value 2N4403
SYMBOL npn 2944 272 R0
SYMATTR InstName Q4
SYMATTR Value 2N4401
SYMBOL res 2864 192 R0
SYMATTR InstName R15
SYMATTR Value 2.2k
SYMBOL res 3856 464 R90
WINDOW 0 0 56 VBottom 2
WINDOW 3 32 56 VTop 2
SYMATTR InstName R16
SYMATTR Value 8
SYMBOL pmos 3200 272 R0
SYMATTR InstName M6
SYMATTR Value IRF9640
SYMBOL nmos 3200 608 R0
SYMATTR InstName M5
SYMATTR Value IRF6644
SYMBOL nmos 3408 592 R0
SYMATTR InstName M1
SYMATTR Value IRF6644
SYMBOL pmos 3408 272 R0
SYMATTR InstName M2
SYMATTR Value IRF9640
SYMBOL pmos 4096 288 M0
SYMATTR InstName M3
SYMATTR Value IRF9640
SYMBOL nmos 4096 576 M0
SYMATTR InstName M4
SYMATTR Value IRF6644
SYMBOL ind 3568 496 R270
WINDOW 0 32 56 VTop 2
WINDOW 3 5 56 VBottom 2
SYMATTR InstName L1
SYMATTR Value 63µ
SYMATTR SpiceLine Rser=0.1
SYMBOL ind 3872 496 R270
WINDOW 0 32 56 VTop 2
WINDOW 3 5 56 VBottom 2
SYMATTR InstName L2
SYMATTR Value 63µ
SYMATTR SpiceLine Rser=0.1
SYMBOL voltage -160 -784 R0
WINDOW 3 53 58 Left 2
SYMATTR Value wavefile="C:\Users\guill\Desktop\Ampli\multi_frequency_signal.wav" chan 0
SYMATTR InstName V6
SYMBOL res 320 992 R90
WINDOW 0 0 56 VBottom 2
WINDOW 3 32 56 VTop 2
SYMATTR InstName R10
SYMATTR Value 240k
SYMBOL res 432 992 R90
WINDOW 0 0 56 VBottom 2
WINDOW 3 32 56 VTop 2
SYMATTR InstName R11
SYMATTR Value 510k
SYMBOL cap 464 1024 R0
SYMATTR InstName C3
SYMATTR Value 2.2n
SYMBOL cap 576 1184 R90
WINDOW 0 0 32 VBottom 2
WINDOW 3 41 35 VTop 2
SYMATTR InstName C6
SYMATTR Value 22n
SYMBOL OpAmps\\LT6010 608 976 R0
SYMATTR InstName U3
SYMBOL res -96 1024 R90
WINDOW 0 0 56 VBottom 2
WINDOW 3 32 56 VTop 2
SYMATTR InstName R12
SYMATTR Value 100k
SYMBOL cap -64 1072 R0
SYMATTR InstName C7
SYMATTR Value 22n
SYMBOL OpAmps\\LT6010 80 1008 R0
SYMATTR InstName U4
SYMBOL res 1024 960 R90
WINDOW 0 0 56 VBottom 2
WINDOW 3 32 56 VTop 2
SYMATTR InstName R13
SYMATTR Value 91k
SYMBOL res 1136 960 R90
WINDOW 0 0 56 VBottom 2
WINDOW 3 32 56 VTop 2
SYMATTR InstName R14
SYMATTR Value 180k
SYMBOL cap 1168 992 R0
SYMATTR InstName C8
SYMATTR Value 15n
SYMBOL cap 1280 1152 R90
WINDOW 0 0 32 VBottom 2
WINDOW 3 41 35 VTop 2
SYMATTR InstName C9
SYMATTR Value 22n
SYMBOL OpAmps\\LT6010 1312 944 R0
SYMATTR InstName U5
SYMBOL res -144 1648 R90
WINDOW 0 0 56 VBottom 2
WINDOW 3 32 56 VTop 2
SYMATTR InstName R17
SYMATTR Value 43k
SYMBOL cap 16 1648 R90
WINDOW 0 0 32 VBottom 2
WINDOW 3 32 32 VTop 2
SYMATTR InstName C10
SYMATTR Value 10n
SYMBOL cap 16 1472 R90
WINDOW 0 0 32 VBottom 2
WINDOW 3 32 32 VTop 2
SYMATTR InstName C11
SYMATTR Value 10n
SYMBOL res 96 1520 R0
SYMATTR InstName R18
SYMATTR Value 270k
SYMBOL OpAmps\\LT6010 256 1696 R0
SYMATTR InstName U6
SYMBOL res 688 1680 R90
WINDOW 0 0 56 VBottom 2
WINDOW 3 32 56 VTop 2
SYMATTR InstName R19
SYMATTR Value 70k
SYMBOL cap 848 1680 R90
WINDOW 0 0 32 VBottom 2
WINDOW 3 32 32 VTop 2
SYMATTR InstName C12
SYMATTR Value 22n
SYMBOL cap 848 1504 R90
WINDOW 0 0 32 VBottom 2
WINDOW 3 32 32 VTop 2
SYMATTR InstName C13
SYMATTR Value 22n
SYMBOL res 928 1552 R0
SYMATTR InstName R20
SYMATTR Value 470k
SYMBOL OpAmps\\LT6010 1088 1728 R0
SYMATTR InstName U7
SYMBOL res -96 1712 R0
SYMATTR InstName R21
SYMATTR Value 27k
SYMBOL res 736 1744 R0
SYMATTR InstName R22
SYMATTR Value 43k
SYMBOL res 1520 1712 R90
WINDOW 0 0 56 VBottom 2
WINDOW 3 32 56 VTop 2
SYMATTR InstName R23
SYMATTR Value 91k
SYMBOL cap 1680 1712 R90
WINDOW 0 0 32 VBottom 2
WINDOW 3 32 32 VTop 2
SYMATTR InstName C14
SYMATTR Value 10n
SYMBOL cap 1680 1536 R90
WINDOW 0 0 32 VBottom 2
WINDOW 3 32 32 VTop 2
SYMATTR InstName C15
SYMATTR Value 10n
SYMBOL res 1760 1584 R0
SYMATTR InstName R24
SYMATTR Value 100k
SYMBOL OpAmps\\LT6010 1920 1760 R0
SYMATTR InstName U8
SYMBOL res 2352 1744 R90
WINDOW 0 0 56 VBottom 2
WINDOW 3 32 56 VTop 2
SYMATTR InstName R25
SYMATTR Value 91k
SYMBOL cap 2512 1744 R90
WINDOW 0 0 32 VBottom 2
WINDOW 3 32 32 VTop 2
SYMATTR InstName C16
SYMATTR Value 22n
SYMBOL cap 2512 1568 R90
WINDOW 0 0 32 VBottom 2
WINDOW 3 32 32 VTop 2
SYMATTR InstName C17
SYMATTR Value 22n
SYMBOL res 2592 1616 R0
SYMATTR InstName R26
SYMATTR Value 110k
SYMBOL OpAmps\\LT6010 2752 1792 R0
SYMATTR InstName U9
SYMBOL res 2128 1808 R0
SYMATTR InstName R27
SYMATTR Value 160k
SYMBOL res 2128 1968 R0
SYMATTR InstName R28
SYMATTR Value 75k
SYMBOL res 2960 1808 R0
SYMATTR InstName R29
SYMATTR Value 240k
SYMBOL res 2960 1968 R0
SYMATTR InstName R30
SYMATTR Value 110k
SYMBOL res -144 2624 R90
WINDOW 0 0 56 VBottom 2
WINDOW 3 32 56 VTop 2
SYMATTR InstName R31
SYMATTR Value 68k
SYMBOL res 32 2624 R90
WINDOW 0 0 56 VBottom 2
WINDOW 3 32 56 VTop 2
SYMATTR InstName R32
SYMATTR Value 240k
SYMBOL cap 96 2688 R0
SYMATTR InstName C18
SYMATTR Value 100p
SYMBOL cap 80 2848 R90
WINDOW 0 0 32 VBottom 2
WINDOW 3 32 32 VTop 2
SYMATTR InstName C19
SYMATTR Value 1n
SYMBOL OpAmps\\LT6010 240 2608 R0
SYMATTR InstName U10
SYMBOL res 704 2592 R90
WINDOW 0 0 56 VBottom 2
WINDOW 3 32 56 VTop 2
SYMATTR InstName R33
SYMATTR Value 30k
SYMBOL res 880 2592 R90
WINDOW 0 0 56 VBottom 2
WINDOW 3 32 56 VTop 2
SYMATTR InstName R34
SYMATTR Value 68k
SYMBOL cap 944 2656 R0
SYMATTR InstName C20
SYMATTR Value 750p
SYMBOL cap 928 2816 R90
WINDOW 0 0 32 VBottom 2
WINDOW 3 32 32 VTop 2
SYMATTR InstName C21
SYMATTR Value 1n
SYMBOL OpAmps\\LT6010 1088 2576 R0
SYMATTR InstName U11
SYMBOL OpAmps\\LT6010 1936 2544 R0
SYMATTR InstName U12
SYMBOL OpAmps\\LT6010 2768 2512 R0
SYMATTR InstName U13
SYMBOL res 1888 2784 R90
WINDOW 0 0 56 VBottom 2
WINDOW 3 32 56 VTop 2
SYMATTR InstName R35
SYMATTR Value 39k
SYMBOL res 2784 2752 R90
WINDOW 0 0 56 VBottom 2
WINDOW 3 32 56 VTop 2
SYMATTR InstName R36
SYMATTR Value 91k
SYMBOL res 1792 2592 R0
SYMATTR InstName R37
SYMATTR Value 270k
SYMBOL res 2624 2560 R0
SYMATTR InstName R38
SYMATTR Value 110k
SYMBOL cap 1520 2560 R90
WINDOW 0 0 32 VBottom 2
WINDOW 3 32 32 VTop 2
SYMATTR InstName C22
SYMATTR Value 6.8n
SYMBOL cap 1696 2560 R90
WINDOW 0 0 32 VBottom 2
WINDOW 3 32 32 VTop 2
SYMATTR InstName C23
SYMATTR Value 6.8n
SYMBOL cap 2352 2528 R90
WINDOW 0 0 32 VBottom 2
WINDOW 3 32 32 VTop 2
SYMATTR InstName C24
SYMATTR Value 6.8n
SYMBOL cap 2528 2528 R90
WINDOW 0 0 32 VBottom 2
WINDOW 3 32 32 VTop 2
SYMATTR InstName C25
SYMATTR Value 6.8n
SYMBOL OpAmps\\LT6010 272 3376 R0
SYMATTR InstName U14
SYMBOL res 32 3440 R0
SYMATTR InstName R39
SYMATTR Value 39k
SYMBOL cap -32 3392 R90
WINDOW 0 0 32 VBottom 2
WINDOW 3 32 32 VTop 2
SYMATTR InstName C26
SYMATTR Value 1n
SYMBOL cap 560 3360 R90
WINDOW 0 0 32 VBottom 2
WINDOW 3 32 32 VTop 2
SYMATTR InstName C27
SYMATTR Value 1n
SYMBOL cap 752 3360 R90
WINDOW 0 0 32 VBottom 2
WINDOW 3 32 32 VTop 2
SYMATTR InstName C28
SYMATTR Value 1n
SYMBOL res 816 3392 R0
SYMATTR InstName R40
SYMATTR Value 130k
SYMBOL OpAmps\\LT6010 992 3344 R0
SYMATTR InstName U15
SYMBOL cap 1232 3328 R90
WINDOW 0 0 32 VBottom 2
WINDOW 3 32 32 VTop 2
SYMATTR InstName C29
SYMATTR Value 1n
SYMBOL cap 1376 3328 R90
WINDOW 0 0 32 VBottom 2
WINDOW 3 32 32 VTop 2
SYMATTR InstName C30
SYMATTR Value 1n
SYMBOL res 1440 3360 R0
SYMATTR InstName R41
SYMATTR Value 51k
SYMBOL res 1024 3568 R90
WINDOW 0 0 56 VBottom 2
WINDOW 3 32 56 VTop 2
SYMATTR InstName R42
SYMATTR Value 12k
SYMBOL OpAmps\\LT6010 1584 3312 R0
SYMATTR InstName U16
SYMBOL res 1696 3520 R90
WINDOW 0 0 56 VBottom 2
WINDOW 3 32 56 VTop 2
SYMATTR InstName R43
SYMATTR Value 33k
SYMBOL voltage -1184 -720 R0
WINDOW 3 -137 138 Left 2
WINDOW 123 -137 166 Left 2
WINDOW 39 0 0 Left 0
SYMATTR Value ""
SYMATTR Value2 AC 1
SYMATTR InstName V2
SYMBOL voltage -864 -720 R0
WINDOW 3 47 64 Left 2
WINDOW 123 0 0 Left 0
WINDOW 39 0 0 Left 0
SYMATTR Value SINE(0 500m 50 0 0 0 10)
SYMATTR InstName V3
SYMBOL res 3616 1392 R0
SYMATTR InstName R44
SYMATTR Value 10k
SYMBOL res 3616 1632 R0
SYMATTR InstName R45
SYMATTR Value 10k
SYMBOL AutoGenerated\\LM393 3760 1552 R0
SYMATTR InstName U17
SYMBOL res 3872 1424 R0
SYMATTR InstName R46
SYMATTR Value 10k
SYMBOL pnp 4208 1776 M180
SYMATTR InstName Q5
SYMATTR Value 2N4403
SYMBOL npn 4208 1344 R0
SYMATTR InstName Q6
SYMATTR Value 2N4401
SYMBOL res 4128 1264 R0
SYMATTR InstName R47
SYMATTR Value 2.2k
SYMBOL res 5120 1536 R90
WINDOW 0 0 56 VBottom 2
WINDOW 3 32 56 VTop 2
SYMATTR InstName R48
SYMATTR Value 8
SYMBOL pmos 4464 1344 R0
SYMATTR InstName M7
SYMATTR Value IRF9640
SYMBOL nmos 4464 1680 R0
SYMATTR InstName M8
SYMATTR Value IRF6644
SYMBOL nmos 4672 1664 R0
SYMATTR InstName M9
SYMATTR Value IRF6644
SYMBOL pmos 4672 1344 R0
SYMATTR InstName M10
SYMATTR Value IRF9640
SYMBOL pmos 5360 1360 M0
SYMATTR InstName M11
SYMATTR Value IRF9640
SYMBOL nmos 5360 1648 M0
SYMATTR InstName M12
SYMATTR Value IRF6644
SYMBOL ind 4832 1568 R270
WINDOW 0 32 56 VTop 2
WINDOW 3 5 56 VBottom 2
SYMATTR InstName L3
SYMATTR Value 63µ
SYMATTR SpiceLine Rser=0.1
SYMBOL ind 5136 1568 R270
WINDOW 0 32 56 VTop 2
WINDOW 3 5 56 VBottom 2
SYMATTR InstName L4
SYMATTR Value 63µ
SYMATTR SpiceLine Rser=0.1
SYMBOL res 3616 2352 R0
SYMATTR InstName R49
SYMATTR Value 10k
SYMBOL res 3616 2592 R0
SYMATTR InstName R50
SYMATTR Value 10k
SYMBOL AutoGenerated\\LM393 3760 2512 R0
SYMATTR InstName U18
SYMBOL res 3872 2384 R0
SYMATTR InstName R51
SYMATTR Value 10k
SYMBOL pnp 4208 2736 M180
SYMATTR InstName Q7
SYMATTR Value 2N4403
SYMBOL npn 4208 2304 R0
SYMATTR InstName Q8
SYMATTR Value 2N4401
SYMBOL res 4128 2224 R0
SYMATTR InstName R52
SYMATTR Value 2.2k
SYMBOL res 5120 2496 R90
WINDOW 0 0 56 VBottom 2
WINDOW 3 32 56 VTop 2
SYMATTR InstName R53
SYMATTR Value 8
SYMBOL pmos 4464 2304 R0
SYMATTR InstName M13
SYMATTR Value IRF9640
SYMBOL nmos 4464 2640 R0
SYMATTR InstName M14
SYMATTR Value IRF6644
SYMBOL nmos 4672 2624 R0
SYMATTR InstName M15
SYMATTR Value IRF6644
SYMBOL pmos 4672 2304 R0
SYMATTR InstName M16
SYMATTR Value IRF9640
SYMBOL pmos 5360 2320 M0
SYMATTR InstName M17
SYMATTR Value IRF9640
SYMBOL nmos 5360 2608 M0
SYMATTR InstName M18
SYMATTR Value IRF6644
SYMBOL ind 4832 2528 R270
WINDOW 0 32 56 VTop 2
WINDOW 3 5 56 VBottom 2
SYMATTR InstName L5
SYMATTR Value 63µ
SYMATTR SpiceLine Rser=0.1
SYMBOL ind 5136 2528 R270
WINDOW 0 32 56 VTop 2
WINDOW 3 5 56 VBottom 2
SYMATTR InstName L6
SYMATTR Value 63µ
SYMATTR SpiceLine Rser=0.1
SYMBOL res 2544 3232 R0
SYMATTR InstName R54
SYMATTR Value 10k
SYMBOL res 2544 3472 R0
SYMATTR InstName R55
SYMATTR Value 10k
SYMBOL AutoGenerated\\LM393 2688 3392 R0
SYMATTR InstName U19
SYMBOL res 2800 3264 R0
SYMATTR InstName R56
SYMATTR Value 10k
SYMBOL pnp 3136 3616 M180
SYMATTR InstName Q9
SYMATTR Value 2N4403
SYMBOL npn 3136 3184 R0
SYMATTR InstName Q10
SYMATTR Value 2N4401
SYMBOL res 3056 3104 R0
SYMATTR InstName R57
SYMATTR Value 2.2k
SYMBOL res 4048 3376 R90
WINDOW 0 0 56 VBottom 2
WINDOW 3 32 56 VTop 2
SYMATTR InstName R58
SYMATTR Value 8
SYMBOL pmos 3392 3184 R0
SYMATTR InstName M19
SYMATTR Value IRF9640
SYMBOL nmos 3392 3520 R0
SYMATTR InstName M20
SYMATTR Value IRF6644
SYMBOL nmos 3600 3504 R0
SYMATTR InstName M21
SYMATTR Value IRF6644
SYMBOL pmos 3600 3184 R0
SYMATTR InstName M22
SYMATTR Value IRF9640
SYMBOL pmos 4288 3200 M0
SYMATTR InstName M23
SYMATTR Value IRF9640
SYMBOL nmos 4288 3488 M0
SYMATTR InstName M24
SYMATTR Value IRF6644
SYMBOL ind 3760 3408 R270
WINDOW 0 32 56 VTop 2
WINDOW 3 5 56 VBottom 2
SYMATTR InstName L7
SYMATTR Value 63µ
SYMATTR SpiceLine Rser=0.1
SYMBOL ind 4064 3408 R270
WINDOW 0 32 56 VTop 2
WINDOW 3 5 56 VBottom 2
SYMATTR InstName L8
SYMATTR Value 63µ
SYMATTR SpiceLine Rser=0.1
TEXT -440 280 Left 2 !.tran 40m
RECTANGLE Normal 1744 1312 -288 720 2
RECTANGLE Normal 3168 2192 -288 1440 2
RECTANGLE Normal 3248 2944 -288 2304 2
RECTANGLE Normal 1984 3664 -288 3088 2
